-------------------------------------------------------
          Amber 22 PMEMD                              2022
          -------------------------------------------------------

  [-O]verwriting output

File Assignments:

 Here is the input file:

equil with no restrait on protein, 1000ps
 &cntrl
  imin = 0, irest = 1, ntx = 5,ig=-1,
  ntb = 2, pres0 = 1.0, ntp = 1,
  cut = 9.0, ntc = 2, ntf = 2,
  tempi = 300.0, temp0 = 300.0, ntt = 2,
  nstlim = 50000, dt = 0.002, nscm = 500,
  ntpr = 500, ntwx = 500, ntwr = 5000, ntwe = 5000,
  iwrap = 1, ioutfm = 1, saltcon = 0.1
 /

Note: ig = -1. Setting random seed to   709369 based on wallclock time in
      microseconds.

--------------------------------------------------------------------------------
   1.  RESOURCE   USE:
--------------------------------------------------------------------------------

 getting box info from netcdf restart file
 NATOM  =   46420 NTYPES =      17 NBONH =   43739 MBONA  =    2679
 NTHETH =    5850 MTHETA =    3632 NPHIH =   11864 MPHIA  =   11569
 NHPARM =       0 NPARM  =       0 NNB   =   83605 NRES   =   14115
 NBONA  =    2679 NTHETA =    3632 NPHIA =   11569 NUMBND =      71
 NUMANG =     163 NPTRA  =     212 NATYP =      38 NPHB   =       0
 IFBOX  =       2 NMXRS  =      24 IFCAP =       0 NEXTRA =       0
 NCOPY  =       0

     BOX TYPE: TRUNCATED OCTAHEDRON

--------------------------------------------------------------------------------
   2.  CONTROL  DATA  FOR  THE  RUN
--------------------------------------------------------------------------------

default_name

General flags:
     imin    =       0, nmropt  =       0

Nature and format of input:
     ntx     =       5, irest   =       1, ntrx    =       1

Nature and format of output:
     ntxo    =       2, ntpr    =     500, ntrx    =       1, ntwr    =    5000
     iwrap   =       1, ntwx    =     500, ntwv    =       0, ntwe    =    5000
     ioutfm  =       1, ntwprt  =       0, idecomp =       0, rbornstat=      0

Potential function:
     ntf     =       2, ntb     =       2, igb     =       0, nsnb    =      25
     ipol    =       0, gbsa    =       0, iesp    =       0
     dielc   =   1.00000, cut     =   9.00000, intdiel =   1.00000

Frozen or restrained atoms:
     ibelly  =       0, ntr     =       0

Molecular dynamics:
     nstlim  =     50000, nscm    =       500, nrespa  =         1
     t       =   0.00000, dt      =   0.00200, vlimit  =  -1.00000

Anderson (strong collision) temperature regulation:
     ig      =  709369, vrand   =    1000
     temp0   = 300.00000, tempi   = 300.00000

Pressure regulation:
     ntp     =       1
     pres0   =   1.00000, comp    =  44.60000, taup    =   1.00000

SHAKE:
     ntc     =       2, jfastw  =       0
     tol     =   0.00001

Ewald parameters:
     verbose =       0, ew_type =       0, nbflag  =       1, use_pme =       1
     vdwmeth =       1, eedmeth =       1, netfrc  =       1
     Box X =   84.472   Box Y =   84.472   Box Z =   84.472
     Alpha =  109.471   Beta  =  109.471   Gamma =  109.471
     NFFT1 =   96       NFFT2 =   96       NFFT3 =   96
     Cutoff=    9.000   Tol   =0.100E-04
     Ewald Coefficient =  0.30768
     Interpolation order =    4

--------------------------------------------------------------------------------
   3.  ATOMIC COORDINATES AND VELOCITIES
--------------------------------------------------------------------------------

default_name
 begin time read from input coords =   200.000 ps

 Number of triangulated 3-point waters found:    13720

     Sum of charges from parm topology file =  -0.00000022
     Forcing neutrality...

--------------------------------------------------------------------------------
   4.  RESULTS
 NSTEP =      500   TIME(PS) =     201.000  TEMP(K) =   296.87  PRESS =   -10.7
 Etot   =   -116577.6736  EKtot   =     28174.4902  EPtot      =   -144752.1638
 BOND   =       974.8513  ANGLE   =      2703.1008  DIHED      =      4200.8278
 1-4 NB =      1202.4296  1-4 EEL =     14012.3405  VDWAALS    =     16821.3379
 EELEC  =   -184667.0518  EHBOND  =         0.0000  RESTRAINT  =         0.0000
 EKCMT  =     12313.9926  VIRIAL  =     12421.0082  VOLUME     =    464740.8801
                                                    Density    =         1.0226
 ------------------------------------------------------------------------------

      A V E R A G E S   O V E R     100 S T E P S

 NSTEP =    50000   TIME(PS) =     300.000  TEMP(K) =   299.80  PRESS =     4.1
 Etot   =   -116595.8325  EKtot   =     28452.8648  EPtot      =   -145048.6973
 BOND   =       991.8250  ANGLE   =      2649.2036  DIHED      =      4178.7925
 1-4 NB =      1220.8939  1-4 EEL =     13994.6499  VDWAALS    =     16733.2766
 EELEC  =   -184817.3388  EHBOND  =         0.0000  RESTRAINT  =         0.0000
 EKCMT  =     12396.2665  VIRIAL  =     12355.2725  VOLUME     =    464299.7455
                                                    Density    =         1.0236
 ------------------------------------------------------------------------------

      R M S  F L U C T U A T I O N S

 NSTEP =    50000   TIME(PS) =     300.000  TEMP(K) =     1.37  PRESS =   111.6
 Etot   =       188.8839  EKtot   =       129.8112  EPtot      =       176.2829
 BOND   =        26.6095  ANGLE   =        35.7468  DIHED      =        19.7263
 1-4 NB =        16.0533  1-4 EEL =        34.3728  VDWAALS    =       155.2023
 EELEC  =       251.0513  EHBOND  =         0.0000  RESTRAINT  =         0.0000
 EKCMT  =        82.5729  VIRIAL  =      1108.0850  VOLUME     =       600.4990
                                                    Density    =         0.0013
 ------------------------------------------------------------------------------
