-------------------------------------------------------
          Amber 22 PMEMD                              2022
          -------------------------------------------------------

  [-O]verwriting output

File Assignments:

 Here is the input file:

equil with no restrait on protein, 1000ps
 &cntrl
  imin = 0, irest = 1, ntx = 5,ig=-1,
  ntb = 2, pres0 = 1.0, ntp = 1,
  cut = 9.0, ntc = 2, ntf = 2,
  tempi = 300.0, temp0 = 300.0, ntt = 2,
  nstlim = 50000, dt = 0.002, nscm = 500,
  ntpr = 500, ntwx = 500, ntwr = 5000, ntwe = 5000,
  iwrap = 1, ioutfm = 1, saltcon = 0.1
 /

Note: ig = -1. Setting random seed to   423505 based on wallclock time in
      microseconds.

--------------------------------------------------------------------------------
   1.  RESOURCE   USE:
--------------------------------------------------------------------------------

 getting box info from netcdf restart file
 NATOM  =   69842 NTYPES =      17 NBONH =   64521 MBONA  =    5358
 NTHETH =   11699 MTHETA =    7264 NPHIH =   23718 MPHIA  =   23147
 NHPARM =       0 NPARM  =       0 NNB   =  136557 NRES   =   20537
 NBONA  =    5358 NTHETA =    7264 NPHIA =   23147 NUMBND =      71
 NUMANG =     163 NPTRA  =     212 NATYP =      38 NPHB   =       0
 IFBOX  =       2 NMXRS  =      24 IFCAP =       0 NEXTRA =       0
 NCOPY  =       0

     BOX TYPE: TRUNCATED OCTAHEDRON

--------------------------------------------------------------------------------
   2.  CONTROL  DATA  FOR  THE  RUN
--------------------------------------------------------------------------------

default_name

General flags:
     imin    =       0, nmropt  =       0

Nature and format of input:
     ntx     =       5, irest   =       1, ntrx    =       1

Nature and format of output:
     ntxo    =       2, ntpr    =     500, ntrx    =       1, ntwr    =    5000
     iwrap   =       1, ntwx    =     500, ntwv    =       0, ntwe    =    5000
     ioutfm  =       1, ntwprt  =       0, idecomp =       0, rbornstat=      0

Potential function:
     ntf     =       2, ntb     =       2, igb     =       0, nsnb    =      25
     ipol    =       0, gbsa    =       0, iesp    =       0
     dielc   =   1.00000, cut     =   9.00000, intdiel =   1.00000

Frozen or restrained atoms:
     ibelly  =       0, ntr     =       0

Molecular dynamics:
     nstlim  =     50000, nscm    =       500, nrespa  =         1
     t       =   0.00000, dt      =   0.00200, vlimit  =  -1.00000

Anderson (strong collision) temperature regulation:
     ig      =  423505, vrand   =    1000
     temp0   = 300.00000, tempi   = 300.00000

Pressure regulation:
     ntp     =       1
     pres0   =   1.00000, comp    =  44.60000, taup    =   1.00000

SHAKE:
     ntc     =       2, jfastw  =       0
     tol     =   0.00001

Ewald parameters:
     verbose =       0, ew_type =       0, nbflag  =       1, use_pme =       1
     vdwmeth =       1, eedmeth =       1, netfrc  =       1
     Box X =   96.857   Box Y =   96.857   Box Z =   96.857
     Alpha =  109.471   Beta  =  109.471   Gamma =  109.471
     NFFT1 =  100       NFFT2 =  100       NFFT3 =  100
     Cutoff=    9.000   Tol   =0.100E-04
     Ewald Coefficient =  0.30768
     Interpolation order =    4

--------------------------------------------------------------------------------
   3.  ATOMIC COORDINATES AND VELOCITIES
--------------------------------------------------------------------------------

default_name
 begin time read from input coords =   200.000 ps

 Number of triangulated 3-point waters found:    19788

     Sum of charges from parm topology file =  -0.00000045
     Forcing neutrality...

--------------------------------------------------------------------------------
   4.  RESULTS
 NSTEP =      500   TIME(PS) =     201.000  TEMP(K) =   300.45  PRESS =   -72.5
 Etot   =   -169650.3875  EKtot   =     43286.6406  EPtot      =   -212937.0281
 BOND   =      2008.7633  ANGLE   =      5401.8365  DIHED      =      8387.4234
 1-4 NB =      2381.1158  1-4 EEL =     27878.2481  VDWAALS    =     21920.5205
 EELEC  =   -280914.9357  EHBOND  =         0.0000  RESTRAINT  =         0.0000
 EKCMT  =     17867.5984  VIRIAL  =     18959.2908  VOLUME     =    697729.1367
                                                    Density    =         1.0313
 ------------------------------------------------------------------------------

      A V E R A G E S   O V E R     100 S T E P S

 NSTEP =    50000   TIME(PS) =     300.000  TEMP(K) =   300.14  PRESS =    -9.6
 Etot   =   -170076.4588  EKtot   =     43241.8814  EPtot      =   -213318.3401
 BOND   =      1982.8131  ANGLE   =      5306.3844  DIHED      =      8365.3474
 1-4 NB =      2439.4490  1-4 EEL =     27975.8750  VDWAALS    =     22259.6830
 EELEC  =   -281647.8920  EHBOND  =         0.0000  RESTRAINT  =         0.0000
 EKCMT  =     17884.3419  VIRIAL  =     18029.1203  VOLUME     =    695062.2109
                                                    Density    =         1.0353
 ------------------------------------------------------------------------------

      R M S  F L U C T U A T I O N S

 NSTEP =    50000   TIME(PS) =     300.000  TEMP(K) =     1.16  PRESS =   103.7
 Etot   =       222.6662  EKtot   =       167.8104  EPtot      =       193.9809
 BOND   =        37.3286  ANGLE   =        56.6633  DIHED      =        32.5482
 1-4 NB =        20.6075  1-4 EEL =        55.2844  VDWAALS    =       211.8415
 EELEC  =       325.4006  EHBOND  =         0.0000  RESTRAINT  =         0.0000
 EKCMT  =       101.9369  VIRIAL  =      1578.2607  VOLUME     =       693.4850
                                                    Density    =         0.0010
 ------------------------------------------------------------------------------
