-------------------------------------------------------
          Amber 22 PMEMD                              2022
          -------------------------------------------------------

  [-O]verwriting output

File Assignments:

 Here is the input file:

equil with no restrait on protein, 1000ps
 &cntrl
  imin = 0, irest = 1, ntx = 5,ig=-1,
  ntb = 2, pres0 = 1.0, ntp = 1,
  cut = 9.0, ntc = 2, ntf = 2,
  tempi = 300.0, temp0 = 300.0, ntt = 2,
  nstlim = 50000, dt = 0.002, nscm = 500,
  ntpr = 500, ntwx = 500, ntwr = 5000, ntwe = 5000,
  iwrap = 1, ioutfm = 1, saltcon = 0.1
 /

Note: ig = -1. Setting random seed to   761911 based on wallclock time in
      microseconds.

--------------------------------------------------------------------------------
   1.  RESOURCE   USE:
--------------------------------------------------------------------------------

 getting box info from netcdf restart file
 NATOM  =   65213 NTYPES =      17 NBONH =   59907 MBONA  =    5358
 NTHETH =   11714 MTHETA =    7264 NPHIH =   23778 MPHIA  =   23142
 NHPARM =       0 NPARM  =       0 NNB   =  130432 NRES   =   18981
 NBONA  =    5358 NTHETA =    7264 NPHIA =   23142 NUMBND =      70
 NUMANG =     162 NPTRA  =     208 NATYP =      38 NPHB   =       0
 IFBOX  =       2 NMXRS  =      24 IFCAP =       0 NEXTRA =       0
 NCOPY  =       0

     BOX TYPE: TRUNCATED OCTAHEDRON

--------------------------------------------------------------------------------
   2.  CONTROL  DATA  FOR  THE  RUN
--------------------------------------------------------------------------------

default_name

General flags:
     imin    =       0, nmropt  =       0

Nature and format of input:
     ntx     =       5, irest   =       1, ntrx    =       1

Nature and format of output:
     ntxo    =       2, ntpr    =     500, ntrx    =       1, ntwr    =    5000
     iwrap   =       1, ntwx    =     500, ntwv    =       0, ntwe    =    5000
     ioutfm  =       1, ntwprt  =       0, idecomp =       0, rbornstat=      0

Potential function:
     ntf     =       2, ntb     =       2, igb     =       0, nsnb    =      25
     ipol    =       0, gbsa    =       0, iesp    =       0
     dielc   =   1.00000, cut     =   9.00000, intdiel =   1.00000

Frozen or restrained atoms:
     ibelly  =       0, ntr     =       0

Molecular dynamics:
     nstlim  =     50000, nscm    =       500, nrespa  =         1
     t       =   0.00000, dt      =   0.00200, vlimit  =  -1.00000

Anderson (strong collision) temperature regulation:
     ig      =  761911, vrand   =    1000
     temp0   = 300.00000, tempi   = 300.00000

Pressure regulation:
     ntp     =       1
     pres0   =   1.00000, comp    =  44.60000, taup    =   1.00000

SHAKE:
     ntc     =       2, jfastw  =       0
     tol     =   0.00001

Ewald parameters:
     verbose =       0, ew_type =       0, nbflag  =       1, use_pme =       1
     vdwmeth =       1, eedmeth =       1, netfrc  =       1
     Box X =   94.613   Box Y =   94.613   Box Z =   94.613
     Alpha =  109.471   Beta  =  109.471   Gamma =  109.471
     NFFT1 =   96       NFFT2 =   96       NFFT3 =   96
     Cutoff=    9.000   Tol   =0.100E-04
     Ewald Coefficient =  0.30768
     Interpolation order =    4

--------------------------------------------------------------------------------
   3.  ATOMIC COORDINATES AND VELOCITIES
--------------------------------------------------------------------------------

default_name
 begin time read from input coords =   200.000 ps

 Number of triangulated 3-point waters found:    18247

     Sum of charges from parm topology file =  -0.00000045
     Forcing neutrality...

--------------------------------------------------------------------------------
   4.  RESULTS
 NSTEP =      500   TIME(PS) =     201.000  TEMP(K) =   300.42  PRESS =  -230.8
 Etot   =   -156130.4951  EKtot   =     40515.0234  EPtot      =   -196645.5185
 BOND   =      1933.4024  ANGLE   =      5272.3956  DIHED      =      8440.5282
 1-4 NB =      2424.3091  1-4 EEL =     28088.7951  VDWAALS    =     19828.3140
 EELEC  =   -262633.2630  EHBOND  =         0.0000  RESTRAINT  =         0.0000
 EKCMT  =     16407.2275  VIRIAL  =     19649.1765  VOLUME     =    650474.0053
                                                    Density    =         1.0344
 ------------------------------------------------------------------------------

      A V E R A G E S   O V E R     100 S T E P S

 NSTEP =    50000   TIME(PS) =     300.000  TEMP(K) =   299.70  PRESS =     0.7
 Etot   =   -156472.9156  EKtot   =     40417.3767  EPtot      =   -196890.2923
 BOND   =      1975.3590  ANGLE   =      5324.4001  DIHED      =      8451.2387
 1-4 NB =      2424.2646  1-4 EEL =     28068.1629  VDWAALS    =     20027.2263
 EELEC  =   -263160.9438  EHBOND  =         0.0000  RESTRAINT  =         0.0000
 EKCMT  =     16481.2633  VIRIAL  =     16471.5951  VOLUME     =    648284.2968
                                                    Density    =         1.0379
 ------------------------------------------------------------------------------

      R M S  F L U C T U A T I O N S

 NSTEP =    50000   TIME(PS) =     300.000  TEMP(K) =     1.05  PRESS =   119.7
 Etot   =       248.4443  EKtot   =       142.1464  EPtot      =       214.5337
 BOND   =        35.9450  ANGLE   =        53.3443  DIHED      =        30.5297
 1-4 NB =        21.0196  1-4 EEL =        59.0064  VDWAALS    =       210.9519
 EELEC  =       349.0498  EHBOND  =         0.0000  RESTRAINT  =         0.0000
 EKCMT  =        97.7995  VIRIAL  =      1667.9632  VOLUME     =       738.8178
                                                    Density    =         0.0012
 ------------------------------------------------------------------------------
